3

C        2.285357     0.000000     0.000000
C        1.856540     1.332710     0.000000
C        1.845284     2.064432     1.193506
4
pattern 0 =  2 1 0 3 0
C        2.285357     0.000000     0.000000
C        1.856540     1.332710     0.000000
C        1.845284     2.064432     1.193506
C        1.728070     2.115389    -1.153650
5
pattern 1 =  3 1 0 4 0
C        2.285357     0.000000     0.000000
C        1.856540     1.332710     0.000000
C        1.845284     2.064432     1.193506
C        1.728070     2.115389    -1.153650
C        2.637413    -0.710737    -1.153650
6
pattern 0 =  1 0 4 5 3
C        2.285357     0.000000     0.000000
C        1.856540     1.332710     0.000000
C        1.845284     2.064432     1.193506
C        1.728070     2.115389    -1.153650
C        2.637413    -0.710737    -1.153650
C        2.671717    -0.656108     1.174840
