52

Si          14.476458    18.543720    10.625517
O           13.449269    18.032492     9.532162
O           15.716260    18.677198     9.632413
O           14.781667    17.148935    11.370549
Si          16.164433    19.882090     8.570399
O           17.260258    19.615999     7.423617
O           14.909297    20.293999     7.690040
O           16.657070    21.196396     9.347690
Si          13.805090    20.087578     6.575567
O           12.219457    19.988947     6.746407
O           14.287807    18.744301     5.870989
O           14.000657    21.284344     5.593226
Si          10.872284    19.375490     7.333185
O           11.464993    18.319670     8.265842
O            9.418613    18.778111     7.124165
O           10.543813    20.516287     8.406450
Si          12.116068    17.236607     9.284615
O           11.133553    17.758900    10.526937
O           12.501403    16.115307     8.204931
Si          14.158885    16.329058    12.590710
O           13.138087    15.246962    12.048606
O           13.187267    17.388786    13.285617
O           15.185131    15.265457    13.197692
Si          12.245724    18.718718    13.549424
O           10.881017    18.513437    14.415328
O           12.488899    19.923435    12.575433
O           13.186534    19.319141    14.827512
Si           9.948729    19.442938    15.387909
O            9.098979    20.129477    14.193877
O           10.993418    20.528042    15.919654
O            8.817836    19.596466    16.571354
Si           8.177265    19.656342    12.963652
O            7.847539    18.140387    13.327251
O            6.796494    20.305544    12.687289
O            9.039565    19.293835    11.629898
Si           9.629619    18.090916    10.815528
O            8.858074    18.019459     9.438271
O            9.013019    16.876966    11.662189
Si          13.524226    21.163795    12.253632
O           13.158416    21.949896    10.913846
O           14.965777    20.540485    12.527504
O           13.184159    22.116699    13.418127
Si          12.262175    23.125919    10.383970
O           11.401946    22.701738     9.129682
O           13.215734    24.299145     9.999717
O           11.222726    23.483866    11.540039
Si          14.380823    24.746178     8.994549
O           15.400118    23.470312     9.388374
O           15.379021    25.265081     7.813237
Si          16.772335    22.749205     9.547701
O           17.822123    23.605450     8.703171
O           17.313976    23.059095    10.987673
80

Si          19.098286    13.973726    27.630329
O           18.827585    12.412274    27.562567
O           17.671650    14.541341    28.022745
O           19.122282    14.324963    26.054012
Si          16.990360    15.944286    28.469582
O           15.936451    15.661602    29.560936
O           16.326817    16.539419    27.182804
O           18.195967    16.528011    29.332502
Si          19.336815    16.287470    30.466969
O           19.000765    15.000301    31.233212
O           20.682764    16.087479    29.768553
O           19.143833    17.515003    31.501411
Si          18.257093    13.895596    32.082100
O           19.003942    12.831789     0.198535
O           17.193611    14.677930     0.177653
O           17.458094    13.043361    31.023726
Si          16.758188    11.688953    30.464804
O           15.482969    11.218101    29.759144
O           17.892015    11.073008    29.548248
O           16.837198    10.788872    31.741648
Si          19.061260    11.121510    28.516560
O           19.572201     9.954095    27.587975
O           20.278568    11.657286    29.420362
Si          19.071949    15.610161    25.102312
O           17.785658    15.526950    24.161760
O           20.266413    15.346526    24.107277
O           19.438599    16.938295    25.951859
Si          20.391808    17.892202    26.688860
O           21.211205    18.943012    25.844069
O           21.447044    17.095835    27.549978
O           19.643980    18.923998    27.612888
Si          21.734545    15.968140    28.619598
O           21.949217    14.565748    27.837093
O           23.106936    16.139681    29.313162
Si          21.398527    15.907019    23.079554
O           22.173113    15.376291    21.854868
O           22.570009    16.342989    24.163860
O           20.851192    17.313353    22.761194
Si          23.145777    14.425599    21.106689
O           22.699350    12.995826    21.585358
O           23.473583    15.112275    19.702711
O           24.509645    14.643428    21.855885
Si          23.071308    11.708865    22.466965
O           22.755936    10.440158    21.666628
O           22.193439    11.765734    23.756430
O           24.539928    11.959226    23.007397
Si          21.311136    11.680068    25.041632
O           21.428602    10.307891    25.832462
O           19.838255    12.147878    24.770809
O           21.842022    12.810562    25.954416
Si          20.621395     9.191155    26.681810
O           19.830151     8.286632    25.762142
O           21.535938     8.395896    27.640984
Si          23.906179    16.000877    25.008619
O           25.133057    15.868680    24.009188
O           23.494297    14.697047    25.735327
O           24.170904    17.215519    25.901766
Si          22.794601    13.780614    26.761246
O           23.822803    12.843162    27.501196
Si          24.082464    11.489515    28.244556
O           24.125532    10.445758    27.012398
O           22.735922    11.230477    29.062925
O           25.228622    11.739046    29.363745
Si          21.639433    11.406926    30.165886
O           21.460108    10.178147    31.195314
O           22.016630    12.774747    30.908789
Si          24.235558    15.842441    30.363144
O           25.483952    15.584925    29.415575
O           23.791298    14.533597    31.020317
O           23.925320    17.073778    31.387850
Si          22.897781    13.575852    31.960377
O           23.577358    12.546788     0.169555
O           21.953304    14.475380     0.045110
Si          16.690042    16.369816    23.396402
O           15.475425    15.319042    23.115942
O           16.387419    17.399675    22.211910
O           15.990696    17.044083    24.695177
Si          15.600505    17.453398    26.198357
O           14.046763    17.152220    26.208422
O           16.133554    18.927040    26.258055
59

Si          14.380823    24.746178     8.994549
O           13.215734    24.299145     9.999717
O           15.400118    23.470312     9.388374
O           15.379021    25.265081     7.813237
Si          16.772335    22.749205     9.547701
O           16.657070    21.196396     9.347690
O           17.822123    23.605450     8.703171
O           17.313976    23.059095    10.987673
Si          18.734921    23.313431    11.774046
O           18.324961    23.062725    13.301385
O           19.338772    21.835400    11.378221
O           20.057190    24.147137    12.004053
Si          17.260712    23.197170    14.380348
O           16.428320    24.387127    13.654560
O           16.419518    21.876919    14.077726
O           16.670097    23.520752    15.882675
Si          16.301739    20.520954    13.339283
O           14.965777    20.540485    12.527504
O           17.522537    20.379492    12.319297
O           16.269953    19.263863    14.292719
Si          13.524226    21.163795    12.253632
O           13.158416    21.949896    10.913846
O           12.488899    19.923435    12.575433
O           13.184159    22.116699    13.418127
Si          12.262175    23.125919    10.383970
O           11.401946    22.701738     9.129682
O           11.222726    23.483866    11.540039
Si          19.026052    20.310003    11.753851
O           19.152494    18.857588    11.192405
O           19.860888    20.245358    13.089507
Si          16.164433    19.882090     8.570399
O           17.260258    19.615999     7.423617
O           15.716260    18.677198     9.632413
O           14.909297    20.293999     7.690040
Si          13.805090    20.087578     6.575567
O           12.219457    19.988947     6.746407
O           14.287807    18.744301     5.870989
O           14.000657    21.284344     5.593226
Si          10.872284    19.375490     7.333185
O           11.464993    18.319670     8.265842
O            9.418613    18.778111     7.124165
O           10.543813    20.516287     8.406450
Si          10.072622    21.966906     8.692353
O            9.091050    22.282778     7.430613
O            9.008932    21.868448     9.904908
Si          16.545017    25.628939     6.821998
O           15.957374    26.433432     5.702683
O           16.954699    24.225094     6.235735
O           17.860229    25.933401     7.684067
Si          17.551319    22.834351     5.832180
O           16.197998    22.146465     5.421428
O           18.238964    23.198727     4.389090
O           18.463488    21.692692     6.270712
Si          14.797944    22.202814     4.654536
O           15.291140    21.210327     3.487124
O           14.939755    23.563480     3.852526
Si          18.754551    24.883663     8.638359
O           19.925680    24.612942     7.598555
O           19.265245    25.931499     9.728042
19

Si          19.276249    24.235430    19.153198
O           19.734865    24.515799    17.626778
O           17.895124    24.159756    19.186834
O           19.770351    25.398802    20.117060
Si          20.161346    26.412550    21.308666
O           20.907637    27.635244    20.611694
O           21.281515    25.605984    22.102743
O           19.418934    27.105207    22.521778
Si          22.317472    28.257654    20.171677
O           22.110134    28.159128    18.606833
O           23.486195    27.435011    20.727615
O           22.364452    29.766663    20.543472
Si          21.168207    27.636248    17.454599
O           21.477222    26.060587    17.280226
O           21.041939    28.167978    16.020823
O           19.643282    27.747738    18.074957
Si          20.819372    24.845776    16.487986
O           21.778799    23.604654    16.515457
O           21.006172    25.347498    14.959039
84

Si          25.171898    17.879965     9.870485
O           23.999964    18.574282    10.589029
O           25.994997    17.217972    11.024292
O           26.158428    19.022455     9.325824
Si          26.311453    16.085991    12.077389
O           25.127817    15.504894    12.991157
O           27.026657    14.943639    11.320391
O           27.409128    16.671928    13.077050
Si          23.744877    15.714046    13.698850
O           22.517546    15.561728    12.726498
O           23.666428    14.565160    14.795450
O           23.737646    17.113050    14.399461
Si          24.601963    18.074148    15.365551
O           23.697550    18.972847    16.230865
O           25.568445    18.925070    14.445784
O           25.466383    17.034851    16.120617
Si          26.064856    20.045815    13.437829
O           25.006824    19.913721    12.327722
O           27.432775    20.002602    12.750692
O           25.824894    21.405514    14.225579
Si          23.632336    19.776302    11.601278
O           23.508617    21.118439    10.762747
O           22.455860    19.854191    12.714401
Si          26.635698    20.132380     8.378781
O           25.550457    20.322001     7.183404
O           27.940536    19.905045     7.517791
O           26.840067    21.576395     9.012613
Si          27.531309    22.484186    10.115802
O           26.844538    23.316336    11.270527
O           28.475298    21.433205    10.916304
O           28.652912    23.383921     9.355558
Si          28.753613    20.271526    11.955009
O           29.257635    18.967213    11.215386
O           29.918211    20.754307    12.883300
Si          28.938910    20.453541     6.376074
O           28.203936    21.722282     5.809464
O           29.305525    19.305416     5.345961
O           30.310358    20.669436     7.183188
Si          30.000050    18.052679     4.695318
O           29.461271    16.832336     3.833872
O           30.850847    17.327112     5.884276
O           31.155672    18.606813     3.653204
Si          31.190111    15.979237     6.536214
O           31.489594    14.821951     5.402398
O           30.095406    15.564701     7.524924
O           32.471340    16.054186     7.459564
Si          28.951902    15.813437     8.581972
O           27.649124    16.111158     7.727108
O           28.687946    14.656911     9.584025
O           29.346600    17.072187     9.413126
Si          27.869665    13.796862    10.626992
O           26.976463    12.865322     9.787380
O           28.615433    12.901483    11.663828
Si          25.190899    20.018608     5.664283
O           23.638554    19.666611     5.555738
O           25.717976    18.533972     5.363586
O           25.627615    20.686754     4.261530
Si          26.262064    17.568794     4.191669
O           26.555851    18.737629     3.098183
O           25.007486    16.761709     3.666874
O           27.040314    16.567734     5.160029
Si          26.804825    15.705956     6.490776
O           26.786835    14.270791     5.934237
O           25.295582    15.985702     6.851198
Si          31.366537    20.198929     8.231879
O           32.495930    19.433880     7.436619
O           30.820669    19.094744     9.168792
O           32.076714    21.270134     9.155482
Si          30.199005    18.169184    10.250115
O           31.098215    17.254894    11.220041
Si          31.138733    16.103588    12.237634
O           31.055077    14.780846    11.442705
O           29.821110    16.333448    13.087802
O           32.351814    16.186834    13.262734
Si          28.611975    16.292274    14.065105
O           28.390038    14.757546    14.491615
O           28.924065    17.294338    15.263890
Si          30.806873    20.605099    14.143030
O           32.181602    19.975672    13.631513
O           30.137600    19.523384    15.053028
O           31.278727    21.761728    15.081845
Si          29.808535    18.336159    15.981844
O           28.969646    18.987713    17.190989
O           31.037718    17.599321    16.685570
37

Si           1.032009    19.059723     8.202899
O           34.899387    18.873110     9.369491
O            0.068635    19.539494     7.105452
O            1.640331    20.500315     8.583086
Si          33.656651    19.387037     6.323755
O           33.916733    18.311407     5.074720
O           33.368176    20.740789     5.555784
O           32.495930    19.433880     7.436619
Si           0.011911    17.209780     4.591854
O           34.912243    16.121012     5.775353
O           34.138775    16.355608     3.499089
O            1.488635    17.038204     4.119939
Si           0.749958    15.286269     6.936376
O           34.766972    15.369688     8.238272
O            1.195302    14.052167     6.123974
O            2.100170    16.061895     7.179293
Si          33.304882    15.688256     8.677797
O           32.471340    16.054186     7.459564
O           32.604488    14.551055     9.476922
O           33.436459    16.863554     9.712863
Si          34.208633    17.975138    10.416261
O            0.445972    17.299316    11.250923
O           33.387768    18.644011    11.575182
Si          31.366537    20.198929     8.231879
O           30.310358    20.669436     7.183188
O           30.820669    19.094744     9.168792
O           32.076714    21.270134     9.155482
Si          33.242779    21.722248    10.071709
O           34.788872    21.636515     9.933790
O           32.950180    21.049988    11.483127
O           32.857967    23.227108    10.456781
Si          33.276382    19.930141    12.549829
O           32.181602    19.975672    13.631513
O           34.601864    20.462702    13.206084
Si           1.368270    21.771408     9.474988
O            2.303875    21.545835    10.740783
O            1.617173    22.917149     8.490113
45

Si           4.720886    19.903038     5.919934
O            5.489963    20.155024     4.632571
O            3.443361    20.820164     5.728817
O            5.563396    20.786455     6.950299
Si           2.576810    21.812408     4.844142
O            1.890701    20.862755     3.842035
O            3.563237    22.744711     4.024081
O            1.814976    22.561209     5.942236
Si           4.467581    22.875732     2.735174
O            5.743265    21.944675     3.014487
O            3.480700    22.386938     1.548813
O            4.951102    24.300215     2.354134
Si           6.613763    21.020155     3.883473
O            7.353641    20.029221     2.875486
O            7.690740    21.173162     5.055836
Si           6.159223    20.523375     8.471295
O            5.003775    19.609083     9.044150
O            7.359481    19.606491     8.168686
O            6.551642    21.832840     9.195904
Si           7.520304    22.613964    10.150585
O            7.905570    23.869984     9.209771
O            9.008932    21.868448     9.904908
O            6.677708    23.264618    11.277543
Si          10.072622    21.966906     8.692353
O           10.543813    20.516287     8.406450
O            9.091050    22.282778     7.430613
O           11.401946    22.701738     9.129682
Si           8.469983    22.216955     5.971804
O            9.710025    22.633532     5.155038
O            7.541552    23.519888     5.763292
Si           4.214766    18.494425     9.683293
O            5.306466    17.424843    10.202711
O            3.492716    17.563402     8.619738
O            3.309793    19.086895    10.851426
Si           3.028441    20.470203    11.637307
O            2.303875    21.545835    10.740783
O            2.109776    20.074095    12.909822
O            4.382564    20.948317    12.183476
Si           1.368270    21.771408     9.474988
O           34.788872    21.636515     9.933790
O            1.640331    20.500315     8.583086
O            1.617173    22.917149     8.490113
Si           1.649902    23.640781     7.096122
O            0.493860    24.678246     7.040053
O            3.006366    24.474106     7.044698
34

Si           4.738734    12.219128    16.071606
O            4.107639    10.948657    16.846373
O            3.573052    13.216836    15.923293
O            5.012088    11.720654    14.806629
Si           2.348410    14.221701    15.643553
O            1.230790    13.335068    14.952449
O            2.869689    15.243298    14.651302
O            1.870687    14.949793    16.961605
Si           1.007419    12.196346    13.888272
O           34.723869    12.314266    12.869794
O            0.717125    10.843701    14.705854
O            2.302094    12.193269    13.037480
Si          34.785030    10.160896    15.863201
O           33.298874    10.516386    15.537073
O           34.607101     8.874731    16.769987
O            0.046106    11.302833    17.073690
Si          34.446011     8.251156    18.194353
O            0.884260     7.426636    18.152096
O           33.610126     7.374548    19.192442
O           34.892052     9.410541    19.243484
Si           2.431785     7.549158    17.792135
O            2.727912     6.252157    16.949081
O            2.662386     9.089622    17.743486
O            2.986142     7.332542    19.265221
Si           3.673577    10.283449    18.246382
O            2.635106    11.342797    18.785437
O            4.994938     9.546991    18.597490
Si          34.297527    12.334041    18.077908
O            0.548768    12.666023    19.066061
O           33.681591    13.497342    17.219543
O           33.013577    11.659983    18.655155
Si           1.811343    12.124128    19.849121
O            1.073749    11.049811    20.756563
O            2.106003    13.215384    20.974407
76

Si           3.364492    16.212278    20.089392
O            2.368214    16.765823    18.946960
O            4.453225    15.625649    19.134447
O            4.130168    17.483509    20.562750
Si           5.527601    16.074894    18.116756
O            6.152569    14.766119    17.501513
O            5.087290    16.973454    16.922298
O            6.889887    16.645170    18.822613
Si           5.017083    18.238152    15.787111
O            3.820908    17.603367    14.906290
O            6.460380    18.902668    16.356623
O            4.098557    19.280939    16.689634
Si           3.435537    16.476604    13.859160
O            2.869689    15.243298    14.651302
O            2.384282    16.573713    12.633426
O            4.843905    15.969143    13.392720
Si           2.348410    14.221701    15.643553
O            3.573052    13.216836    15.923293
O            1.230790    13.335068    14.952449
O            1.870687    14.949793    16.961605
Si           1.399357    16.255733    17.779318
O            0.042404    15.819417    18.446589
O            0.929598    17.335926    16.782904
Si           5.126725    18.375534    21.405048
O            5.211049    19.667025    20.567600
O            4.095064    18.963478    22.542498
O            6.566131    18.400599    22.176668
Si           3.530404    20.037725    23.451118
O            2.902347    21.195290    22.575085
O            2.250609    19.526979    24.274305
O            4.508099    20.500523    24.572536
Si           1.068999    19.891907    25.169127
O            0.637068    18.686636    25.966251
O           34.790199    20.345751    24.263096
O            1.505995    21.108103    26.098957
Si          33.639294    20.201452    23.212063
O           33.917465    18.951828    22.285280
O           33.802376    21.533943    22.256954
O           32.257401    20.151531    24.090294
Si           0.015543    18.108892    21.437372
O           34.070316    17.207394    20.506361
O            0.738607    19.112339    20.429617
O            1.017199    17.269552    22.259251
Si          33.749527    16.080564    19.417105
O           32.472038    16.601439    18.644501
O           33.408623    14.796887    20.200821
Si           5.905754    20.617302    19.513422
O            6.931026    19.979473    18.468653
O            4.662030    20.999653    18.570934
O            6.655084    21.846323    20.188560
Si           3.494707    20.401997    17.669395
O            3.070460    21.483400    16.645575
O            2.292698    20.056084    18.621094
Si           1.087442    20.319996    19.495325
O           34.728062    20.647068    18.646830
O            1.301660    21.454119    20.531244
Si           2.123328    22.191788    21.598143
O            3.206543    22.963818    20.798428
O            1.404212    23.315920    22.482340
Si           7.374850    20.009413    16.932362
O            6.937917    21.386292    16.417894
O            8.817836    19.596466    16.571354
Si           2.081867    22.465103    15.836811
O            1.323177    21.486996    14.870852
O            3.015692    23.509653    15.132790
O            1.247625    23.310114    16.947048
Si           1.042278    20.254242    14.015241
O           34.601864    20.462702    13.206084
O            0.795331    18.945812    14.894915
O            2.109776    20.074095    12.909822
Si          34.818283    18.158951    15.891493
O           33.902798    17.080381    15.208224
O           34.025536    19.104803    16.817589
Si          33.568249    20.304438    17.668839
O           33.295486    21.516691    16.655312
O           32.281429    19.912233    18.477734
15

Si          33.186543    16.304686    23.998272
O           34.669903    15.778970    23.560713
O           32.603058    15.261689    24.714586
O           33.595421    17.343430    25.149324
Si          34.519852    17.507881    26.398170
O            0.258334    16.170689    26.560251
O            0.637068    18.686636    25.966251
O           33.668320    17.927845    27.582270
Si           1.508020    15.152723    26.260645
O            2.162763    13.632825    26.114759
O            1.869814    15.861109    24.872272
O            2.587289    15.792003    27.233620
Si           1.299181    16.202356    23.426138
O            1.919064    14.979627    22.607737
O            1.017199    17.269552    22.259251
22

Si          29.339825    11.902426    27.041281
O           30.075636    12.023320    25.609406
O           27.983990    12.609949    26.700924
O           30.125584    13.073576    27.796673
Si          27.040001    13.551100    25.858984
O           26.590012    12.601133    24.641644
O           26.361261    14.437595    27.017971
O           28.147631    14.457403    25.315010
Si          29.207270    15.639062    25.412607
O           30.244343    15.162956    24.148682
O           30.286013    15.238458    26.499994
O           29.552156    17.271141    25.444014
Si          31.134192    14.274594    27.330330
O           32.360649    13.588056    26.578938
O           31.768116    14.811960    28.649757
Si          33.309006    12.318933    26.337555
O           32.371162    11.323852    25.675890
O           34.711609    12.457873    25.540821
O           33.642471    11.736557    27.724449
Si          31.044634    11.250355    24.699768
O           30.683189     9.655750    24.907024
O           31.846428    11.280432    23.367620
45

Si          34.068501    12.175223    29.175699
O            0.662601    11.903222    29.148687
O           33.642471    11.736557    27.724449
O           34.056938    13.797139    28.988869
Si          33.309006    12.318933    26.337555
O           32.371162    11.323852    25.675890
O           34.711609    12.457873    25.540821
O           32.360649    13.588056    26.578938
Si           0.537975    11.770436    24.301058
O           34.317680    11.066612    23.484131
O            1.418637    12.556606    23.273727
O            1.444520    10.531113    24.751205
Si           2.940804    10.112463    25.002357
O            3.530159     9.588614    23.570286
O            2.840698     8.924547    26.022442
O            3.553387    11.560799    25.150930
Si           3.546192    12.961705    25.856133
O            2.162763    13.632825    26.114759
O            4.467861    14.042072    25.137852
O            4.161744    12.690913    27.301382
Si           4.363842    11.772821    28.537868
O            3.126451    11.725598    29.394627
O            4.690637    10.236641    28.304026
O            5.559735    12.390840    29.420855
Si           1.823289    11.376745    30.230108
O            1.148183    10.307303    31.071556
O            1.834256    12.673663    31.212984
Si          33.094925    15.004415    29.487240
O           31.768116    14.811960    28.649757
O           32.830547    14.460065    30.952585
O           33.312950    16.614023    29.612637
Si          32.274586    13.277128    31.842487
O           31.395844    14.030110     0.175653
O           33.524830    12.935639     0.032423
O           32.082371    12.036111    30.902363
Si          32.133228    10.450425    30.720743
O           31.925331     9.628405    29.382923
O           30.925213     9.881427    31.626970
O           33.548897    10.062093    31.466661
Si           0.056236     9.535928    31.892647
O            0.900642     9.151849     0.369008
O           34.867882     8.125505    31.192921
Si          31.134192    14.274594    27.330330
O           30.125584    13.073576    27.796673
O           30.286013    15.238458    26.499994
45

Si          26.581839    11.426320     2.689867
O           26.326822    10.221049     3.731359
O           25.197815    11.720308     2.020826
O           26.772305    12.628375     3.700248
Si          23.948723    11.444573     1.230028
O           24.248865    10.132099     0.336651
O           23.577358    12.546788     0.169555
O           22.796244    11.317076     2.280175
Si          25.302322     9.343819    32.262211
O           26.350189     8.589499     0.403726
O           24.534515     8.188040    31.446466
O           26.053432    10.288635    31.271601
Si          26.750336     7.426166     1.390142
O           27.371475     6.216723     0.570167
O           25.521780     6.983399     2.229361
O           27.903477     7.700097     2.426978
Si          24.197416     7.241323     3.133327
O           23.903942     5.903385     4.006050
O           23.000368     7.690303     2.193889
O           24.561167     8.419031     4.132790
Si          25.588285     9.362833     4.803819
O           26.501257     8.452519     5.748720
O           24.795609    10.294512     5.814667
Si          21.554976    11.650234     3.240397
O           21.239042    10.477045     4.217469
O           20.391459    12.063007     2.262964
O           22.055506    12.872962     4.069781
Si          23.076792    13.746389     4.898640
O           24.109465    12.731326     5.603887
O           23.067921    15.104255     5.756972
O           24.000032    14.329907     3.657203
Si          24.269300    11.529962     6.633468
O           22.862120    11.286412     7.240047
O           25.192995    11.968180     7.881652
Si          27.539064    13.289366     4.857464
O           26.786835    14.270791     5.934237
O           28.240368    12.242705     5.799954
O           28.715540    14.195185     4.225042
Si          26.804825    15.705956     6.490776
O           27.040314    16.567734     5.160029
O           25.295582    15.985702     6.851198
O           27.649124    16.111158     7.727108
Si          23.722488    15.984077     6.910330
O           23.293072    15.266944     8.294003
O           23.343964    17.475039     6.812655
98

Si          28.886621    11.553056     0.972876
O           28.855570    10.150110     0.235154
O           28.973175    12.546339    32.471336
O           30.329674    11.579744     1.567925
Si          27.986364    13.542008    31.666672
O           27.190369    12.552458    30.790178
O           28.772858    14.545144    30.695206
O           27.076397    14.249461    32.718918
Si          26.434088    11.305322    30.206964
O           27.397182    10.524925    29.178028
O           26.053432    10.288635    31.271601
O           25.228622    11.739046    29.363745
Si          27.646120     9.462362    27.953506
O           26.767799     8.247554    28.466860
O           26.556166     9.903794    26.794325
O           28.802233     8.664714    27.213818
Si          26.812229     6.684239    28.864916
O           26.790503     5.911727    27.534996
O           28.243963     6.652676    29.473831
O           25.661495     6.554014    29.891195
Si          29.493687     6.701092    30.495949
O           30.597509     7.420603    29.520481
O           29.012295     5.654929    31.586679
O           29.108280     8.079679    31.266584
Si          29.803366     9.066943    32.309879
O           30.346788     8.131030     0.582690
O           30.925213     9.881427    31.626970
Si          31.396193    11.632049     2.661903
O           31.208765    10.272559     3.512465
O           32.884480    11.555718     2.041840
O           31.431610    12.783701     3.707853
Si          30.826572     9.411232     4.772457
O           29.827606     8.337174     4.108694
O           29.717196    10.441022     5.387511
O           31.147882     8.725213     6.120984
Si          29.095390     7.212498     3.313503
O           30.174799     6.494377     2.358068
O           27.903477     7.700097     2.426978
O           28.652424     6.123769     4.315885
Si          31.147045     6.855014     1.150135
O           31.352148     5.416050     0.502010
O           32.522652     7.169869     1.873761
Si          34.020016    12.530056     1.423450
O            0.459525    11.794739     1.849468
O           33.524830    12.935639     0.032423
O           33.995392    13.910150     2.211068
Si          32.274586    13.277128    31.842487
O           31.395844    14.030110     0.175653
O           32.082371    12.036111    30.902363
O           32.830547    14.460065    30.952585
Si          32.133228    10.450425    30.720743
O           31.925331     9.628405    29.382923
O           33.548897    10.062093    31.466661
Si          26.750336     7.426166     1.390142
O           27.371475     6.216723     0.570167
O           26.350189     8.589499     0.403726
O           25.521780     6.983399     2.229361
Si          25.302322     9.343819    32.262211
O           24.248865    10.132099     0.336651
O           24.534515     8.188040    31.446466
Si          31.148861    15.308567     1.080799
O           30.341619    16.433945     0.370025
O           30.404037    14.916605     2.425634
O           32.529285    15.911168     1.573728
Si          30.187967    17.565544    32.057907
O           28.642853    18.058661    32.354794
O           29.860683    16.786669    30.668585
O           31.063215    18.841236    31.603531
Si          28.669119    16.000429    29.992922
O           27.815142    15.623160    28.684278
O           27.533091    16.643166    30.913771
Si          33.922390    15.477963     2.295517
O            0.020224    15.966377     1.157348
O           34.138775    16.355608     3.499089
Si          29.177055    15.390672     3.307537
O           28.057690    15.398796     2.104293
O           28.715540    14.195185     4.225042
O           29.461271    16.832336     3.833872
Si          26.887396    15.313545     1.122827
O           26.830496    16.680019     0.418052
O           25.508472    15.177233     1.905101
Si          29.529348    11.648159     6.438080
O           30.089746    11.104640     7.813630
O           28.240368    12.242705     5.799954
O           30.647596    12.638677     5.987792
Si          27.539064    13.289366     4.857464
O           26.772305    12.628375     3.700248
O           26.786835    14.270791     5.934237
Si          31.784044    13.292373     5.206486
O           33.143230    12.537247     5.867435
O           31.489594    14.821951     5.402398
Si          31.190111    15.979237     6.536214
O           30.850847    17.327112     5.884276
O           30.095406    15.564701     7.524924
O           32.471340    16.054186     7.459564
Si          30.000050    18.052679     4.695318
O           29.305525    19.305416     5.345961
O           31.155672    18.606813     3.653204
59

Si          28.818056    32.224426    12.034574
O           29.800501    32.091434    10.817659
O           28.748373    30.703388    12.477181
O           27.433928    32.392784    11.303868
Si          29.090117    29.896061    13.868569
O           27.956116    28.732378    13.682720
O           28.140783    30.822104    14.914552
O           30.522760    30.716595    14.181649
Si          30.958220    31.994566    14.952712
O           32.204308    31.673059    15.856284
O           29.714401    32.250149    15.967944
O           31.258886    33.083679    13.884633
Si          32.292084    34.071709    13.137895
O           31.746531     0.915085    13.755925
O           31.620750    34.321068    11.651076
O           33.392941    32.997116    12.710008
Si          30.914280     0.699779    10.631385
O           29.547581     1.427007    11.223352
O           30.359852    34.228519     9.555799
O           31.628016     1.876010     9.828031
Si          30.160652    32.619534     9.301236
O           28.599960    32.737076     8.965208
O           30.825594    32.504208     7.777696
Si          25.923183    32.794979    11.378548
O           25.077555    32.137653    10.190778
O           25.873304    34.295761    11.023506
O           25.019642    32.658600    12.668177
Si          24.604198    32.692165     8.650882
O           23.178576    32.642834     8.074336
O           25.899885    32.382690     7.780932
O           24.780869    34.285423     8.869841
Si          27.496067    32.305737     7.924995
O           28.128630    30.991533     7.336056
O           28.088251    33.476540     6.843268
Si          24.073210    33.181236    13.808936
O           23.579594    31.908209    14.587506
O           22.731241    33.700626    13.096654
O           24.483797    34.260567    14.869835
Si          22.950245    30.986279    15.703219
O           22.238638    29.867159    14.787779
O           22.085581    31.850338    16.636198
O           24.168600    30.435881    16.523521
Si          25.315247    29.370689    16.795788
O           26.260038    29.240843    15.509568
O           24.605211    27.915993    16.730942
O           25.879766    29.393679    18.348534
Si          26.522249    28.297651    14.225579
O           25.620977    28.972092    13.098424
O           25.615879    27.061199    14.625928
Si          25.414444     0.708733    15.713906
O           26.060419     0.002697    16.944754
O           26.379040     1.475613    14.781878
O           24.369162     1.674463    16.401075
Si          26.737516    33.514950    17.887503
O           25.487900    32.853992    18.786518
O           27.164625    32.380859    16.784082
O           27.938581    33.614441    18.887623
Si          28.330519    31.421316    16.344559
O           28.843554    30.178951    17.173515
26

Si           4.403242     2.715938    12.894053
O            3.239516     2.413894    13.887255
O            4.649246     1.171288    12.450135
O            5.536436     2.928167    13.953707
Si           5.485558     0.396629    11.344945
O            4.903249     0.469435     9.897040
O            5.828237    33.458149    11.671926
O            6.888207     1.109302    11.446344
Si           8.217188     1.303935    12.341032
O            9.336426     1.297540    11.139853
O            8.508213    34.403759    12.899331
O            7.827186     2.129551    13.597812
Si           6.954344     2.960491    14.641205
O            6.754956     1.959636    15.884051
O            7.470167     4.425041    14.480108
Si           6.781614     1.201191    17.309666
O            5.288269     1.521246    17.907305
O            6.441337    34.294449    16.812801
O            8.379513     1.037983    17.462599
Si           3.792021     0.801728    17.647562
O            2.781388     1.762100    18.365122
O            3.910151    34.207985    18.772684
O            3.501029     1.363673    16.156645
Si           2.695778     2.485317    15.348570
O            1.162853     2.008208    15.443018
O            3.075071     3.884183    15.941586
