192

C        2.000000    -2.000000    -2.828427
C        1.082392    -1.082392    -3.695518
C        0.000000     0.000000    -4.000000
C       -1.082392     1.082392    -3.695518
C       -2.000000     2.000000    -2.828427
C       -2.613126     2.613126    -1.530734
C       -2.828427     2.828427    -0.000000
C       -2.613126     2.613126     1.530734
C       -2.000000     2.000000     2.828427
C       -1.082392     1.082392     3.695518
C       -0.000000     0.000000     4.000000
C        1.082392    -1.082392     3.695518
C        2.000000    -2.000000     2.828427
C        2.613126    -2.613126     1.530734
C        2.828427    -2.828427    -0.000000
C        2.613126    -2.613126    -1.530734
C        3.682163    -0.853736    -3.207365
C        2.641619     0.186808    -4.190624
C        1.414214     1.414214    -4.535898
C        0.186808     2.641619    -4.190624
C       -0.853736     3.682163    -3.207365
C       -1.549005     4.377432    -1.735813
C       -1.793151     4.621578    -0.000000
C       -1.549005     4.377432     1.735813
C       -0.853736     3.682163     3.207365
C        0.186808     2.641619     4.190624
C        1.414214     1.414214     4.535898
C        2.641619     0.186808     4.190624
C        3.682163    -0.853736     3.207365
C        4.377432    -1.549005     1.735813
C        4.621578    -1.793151    -0.000000
C        4.377432    -1.549005    -1.735813
C        5.449490    -0.550510    -4.242641
C        4.073078     0.825901    -5.543277
C        2.449490     2.449490    -6.000000
C        0.825901     4.073078    -5.543277
C       -0.550510     5.449490    -4.242641
C       -1.470199     6.369179    -2.296101
C       -1.793151     6.692130    -0.000000
C       -1.470199     6.369179     2.296101
C       -0.550510     5.449490     4.242641
C        0.825901     4.073078     5.543277
C        2.449490     2.449490     6.000000
C        4.073078     0.825901     5.543277
C        5.449490    -0.550510     4.242641
C        6.369179    -1.470199     2.296101
C        6.692130    -1.793151    -0.000000
C        6.369179    -1.470199    -2.296101
C        6.828427    -1.171573    -5.656854
C        4.993212     0.663643    -7.391036
C        2.828427     2.828427    -8.000000
C        0.663643     4.993212    -7.391036
C       -1.171573     6.828427    -5.656854
C       -2.397825     8.054679    -3.061467
C       -2.828427     8.485281    -0.000000
C       -2.397825     8.054679     3.061467
C       -1.171573     6.828427     5.656854
C        0.663643     4.993212     7.391036
C        2.828427     2.828427     8.000000
C        4.993212     0.663643     7.391036
C        6.828427    -1.171573     5.656854
C        8.054679    -2.397825     3.061467
C        8.485281    -2.828427    -0.000000
C        8.054679    -2.397825    -3.061467
C        7.449490    -2.550510    -7.071068
C        5.155470    -0.256491    -9.238795
C        2.449490     2.449490   -10.000000
C       -0.256491     5.155470    -9.238795
C       -2.550510     7.449490    -7.071068
C       -4.083325     8.982305    -3.826834
C       -4.621578     9.520558    -0.000000
C       -4.083325     8.982305     3.826834
C       -2.550510     7.449490     7.071068
C       -0.256491     5.155470     9.238795
C        2.449490     2.449490    10.000000
C        5.155470    -0.256491     9.238795
C        7.449490    -2.550510     7.071068
C        8.982305    -4.083325     3.826834
C        9.520558    -4.621578    -0.000000
C        8.982305    -4.083325    -3.826834
C        7.146264    -4.317837    -8.106344
C        4.516377    -1.687950   -10.591449
C        1.414214     1.414214   -11.464102
C       -1.687950     4.516377   -10.591449
C       -4.317837     7.146264    -8.106344
C       -6.075072     8.903499    -4.387122
C       -6.692130     9.520558    -0.000000
C       -6.075072     8.903499     4.387122
C       -4.317837     7.146264     8.106344
C       -1.687950     4.516377    10.591449
C        1.414214     1.414214    11.464102
C        4.516377    -1.687950    10.591449
C        7.146264    -4.317837     8.106344
C        8.903499    -6.075072     4.387122
C        9.520558    -6.692130    -0.000000
C        8.903499    -6.075072    -4.387122
C        6.000000    -6.000000    -8.485281
C        3.247177    -3.247177   -11.086554
C        0.000000     0.000000   -12.000000
C       -3.247177     3.247177   -11.086554
C       -6.000000     6.000000    -8.485281
C       -7.839378     7.839378    -4.592201
C       -8.485281     8.485281    -0.000000
C       -7.839378     7.839378     4.592201
C       -6.000000     6.000000     8.485281
C       -3.247177     3.247177    11.086554
C       -0.000000     0.000000    12.000000
C        3.247177    -3.247177    11.086554
C        6.000000    -6.000000     8.485281
C        7.839378    -7.839378     4.592201
C        8.485281    -8.485281    -0.000000
C        7.839378    -7.839378    -4.592201
C        4.317837    -7.146264    -8.106344
C        1.687950    -4.516377   -10.591449
C       -1.414214    -1.414214   -11.464102
C       -4.516377     1.687950   -10.591449
C       -7.146264     4.317837    -8.106344
C       -8.903499     6.075072    -4.387122
C       -9.520558     6.692130    -0.000000
C       -8.903499     6.075072     4.387122
C       -7.146264     4.317837     8.106344
C       -4.516377     1.687950    10.591449
C       -1.414214    -1.414214    11.464102
C        1.687950    -4.516377    10.591449
C        4.317837    -7.146264     8.106344
C        6.075072    -8.903499     4.387122
C        6.692130    -9.520558    -0.000000
C        6.075072    -8.903499    -4.387122
C        2.550510    -7.449490    -7.071068
C        0.256491    -5.155470    -9.238795
C       -2.449490    -2.449490   -10.000000
C       -5.155470     0.256491    -9.238795
C       -7.449490     2.550510    -7.071068
C       -8.982305     4.083325    -3.826834
C       -9.520558     4.621578    -0.000000
C       -8.982305     4.083325     3.826834
C       -7.449490     2.550510     7.071068
C       -5.155470     0.256491     9.238795
C       -2.449490    -2.449490    10.000000
C        0.256491    -5.155470     9.238795
C        2.550510    -7.449490     7.071068
C        4.083325    -8.982305     3.826834
C        4.621578    -9.520558    -0.000000
C        4.083325    -8.982305    -3.826834
C        1.171573    -6.828427    -5.656854
C       -0.663643    -4.993212    -7.391036
C       -2.828427    -2.828427    -8.000000
C       -4.993212    -0.663643    -7.391036
C       -6.828427     1.171573    -5.656854
C       -8.054679     2.397825    -3.061467
C       -8.485281     2.828427    -0.000000
C       -8.054679     2.397825     3.061467
C       -6.828427     1.171573     5.656854
C       -4.993212    -0.663643     7.391036
C       -2.828427    -2.828427     8.000000
C       -0.663643    -4.993212     7.391036
C        1.171573    -6.828427     5.656854
C        2.397825    -8.054679     3.061467
C        2.828427    -8.485281    -0.000000
C        2.397825    -8.054679    -3.061467
C        0.550510    -5.449490    -4.242641
C       -0.825901    -4.073078    -5.543277
C       -2.449490    -2.449490    -6.000000
C       -4.073078    -0.825901    -5.543277
C       -5.449490     0.550510    -4.242641
C       -6.369179     1.470199    -2.296101
C       -6.692130     1.793151    -0.000000
C       -6.369179     1.470199     2.296101
C       -5.449490     0.550510     4.242641
C       -4.073078    -0.825901     5.543277
C       -2.449490    -2.449490     6.000000
C       -0.825901    -4.073078     5.543277
C        0.550510    -5.449490     4.242641
C        1.470199    -6.369179     2.296101
C        1.793151    -6.692130    -0.000000
C        1.470199    -6.369179    -2.296101
C        0.853736    -3.682163    -3.207365
C       -0.186808    -2.641619    -4.190624
C       -1.414214    -1.414214    -4.535898
C       -2.641619    -0.186808    -4.190624
C       -3.682163     0.853736    -3.207365
C       -4.377432     1.549005    -1.735813
C       -4.621578     1.793151    -0.000000
C       -4.377432     1.549005     1.735813
C       -3.682163     0.853736     3.207365
C       -2.641619    -0.186808     4.190624
C       -1.414214    -1.414214     4.535898
C       -0.186808    -2.641619     4.190624
C        0.853736    -3.682163     3.207365
C        1.549005    -4.377432     1.735813
C        1.793151    -4.621578    -0.000000
C        1.549005    -4.377432    -1.735813
